31
GLASS_108188
C         -5.62060       -2.42000        0.00000
N         -4.14340       -2.15950        0.00000
C         -3.17920       -3.30860        0.00000
C         -3.63040       -0.75000        0.00000
C         -3.63040        0.75000        0.00000
C         -2.33130        1.50000        0.00000
C         -1.03230        0.75000        0.00000
C          0.39430        1.21350        0.00000
C          0.40930        2.72020        0.00000
C         -0.80420        3.60190        0.00000
C         -2.17450        2.99180        0.00000
N          1.27600        0.00000        0.00000
C          0.39430       -1.21350        0.00000
O          0.85780       -2.64010        0.00000
N         -1.03230       -0.75000        0.00000
C         -2.33130       -1.50000        0.00000
H         -7.09780       -2.68050        0.00000
H         -5.36010       -3.89720        0.00000
H         -6.05920       -0.98560        0.00000
H         -2.21500       -4.45770        0.00000
H         -4.32830       -4.27280        0.00000
H         -2.51060       -2.87450        0.00000
H         -4.79230       -0.39470        0.00000
H         -4.82690        0.53900        0.00000
H         -4.14340        2.15950        0.00000
H          1.77960        3.33030        0.00000
H         -0.64740        5.09370        0.00000
H         -3.38810        3.87350        0.00000
H          2.77600        0.00000        0.00000
H         -1.61150       -2.17120        0.00000
H         -2.71960       -2.29610        0.00000
