49
GLASS_116701
C          3.00350        1.98940        0.00000
N          2.69170        3.45660        0.00000
C          3.69540        4.57130        0.00000
C          2.94540        5.87030        0.00000
C          1.47810        5.55850        0.00000
C          1.32130        4.06670        0.00000
C          0.85780        2.64010        0.00000
C          0.39430        1.21350        0.00000
C          1.27600        0.00000        0.00000
N          0.39430       -1.21350        0.00000
C         -1.03230       -0.75000        0.00000
C         -1.03230        0.75000        0.00000
C         -2.33130        1.50000        0.00000
C         -3.63040        0.75000        0.00000
C         -3.63040       -0.75000        0.00000
C         -2.33130       -1.50000        0.00000
N         -4.92940        1.50000        0.00000
S         -6.22840        0.75000        0.00000
O         -5.47840       -0.54900        0.00000
O         -6.97840        2.04900        0.00000
C         -7.52750       -0.00000        0.00000
C         -8.82650        0.75000        0.00000
C        -10.12560       -0.00000        0.00000
C        -10.12560       -1.50000        0.00000
C         -8.82650       -2.25000        0.00000
C         -7.52750       -1.50000        0.00000
Cl       -11.42460        0.75000        0.00000
H          3.49190        0.57110        0.00000
H          4.47080        2.30120        0.00000
H          2.24980        1.72980        0.00000
H          4.90890        5.45300        0.00000
H          4.69910        3.45660        0.00000
H          2.48180        7.29690        0.00000
H          4.31570        6.48050        0.00000
H         -0.02190        5.55850        0.00000
H          1.32130        7.05030        0.00000
H         -0.14590        4.37860        0.00000
H          1.47730        2.13840        0.00000
H         -0.56880        3.10360        0.00000
H          2.76480       -0.18280        0.00000
H          0.85780       -2.64010        0.00000
H         -2.33130        3.00000        0.00000
H         -4.92940       -1.50000        0.00000
H         -2.33130       -3.00000        0.00000
H         -4.92940        3.00000        0.00000
H         -8.82650        2.25000        0.00000
H        -11.42460       -2.25000        0.00000
H         -8.82650       -3.75000        0.00000
H         -6.22840       -2.25000        0.00000
