27
GLASS_120827
C          4.07210       -3.30630        0.00000
C          4.58510       -1.89680        0.00000
N          3.40310       -0.97330        0.00000
C          2.15950       -1.81210        0.00000
N          2.57300       -3.25400        0.00000
C          0.75000       -1.29900        0.00000
C          1.50000        0.00000        0.00000
O          0.75000        1.29900        0.00000
C         -0.75000        1.29900        0.00000
C         -1.50000        2.59810        0.00000
C         -3.00000        2.59810        0.00000
C         -3.75000        1.29900        0.00000
C         -3.00000        0.00000        0.00000
C         -1.50000        0.00000        0.00000
O         -0.75000       -1.29900        0.00000
H          5.52750       -3.66920        0.00000
H          3.86330       -4.79170        0.00000
H          5.38000       -0.62470        0.00000
H          5.93330       -2.55430        0.00000
H          1.64950       -4.43600        0.00000
H          0.48950       -2.77620        0.00000
H          2.64910        0.96420        0.00000
H          2.59210       -0.53260        0.00000
H         -0.75000        3.89710        0.00000
H         -3.75000        3.89710        0.00000
H         -5.25000        1.29900        0.00000
H         -3.75000       -1.29900        0.00000
